3
2, 1
Cl 0.0 0.0 0.0
Ca 5.0 5.1 4.9
Cl 10.0 10.0 10.0
3
2, 1
Cl 0.0 0.0 0.0
Ca 5.0 5.0 5.0
Cl 10.0 10.0 10.0
3
1, 1
Cl 0.0 0.0 0.0
Ca 3.2 3.2 3.2
Cl 10.0 10.0 10.0
3
1, 1
Cl 0.0 0.0 0.0
Ca 3.2 3.2 3.2
Cl 10.0 10.0 10.0
3
1, 1
Cl 0.0 0.0 0.0
Ca 3.2 3.2 3.2
Cl 10.0 10.0 10.0
3
1, 1
Cl 0.0 0.0 0.0
Ca 3.2 3.2 3.2
Cl 10.0 10.0 10.0
3
1, 1
Cl 0.0 0.0 0.0
Ca 3.2 3.2 3.2
Cl 10.0 10.0 10.0
3
1, 2
Cl 0.0 0.0 0.0
Ca 5.0 5.1 4.9
Cl 10.0 10.0 10.0
3
1, 2
Cl 0.0 0.0 0.0
Ca 4.9425724311 5.0696815018 4.920048344
Cl 10.0 10.0 10.0
3
2, 1
Cl 0.0 0.0 0.0
Ca 4.9425724311 5.0696815018 4.920048344
Cl 10.0 10.0 10.0
3
1, 2
Cl 0.0 0.0 0.0
Ca 4.930642069 5.0643852578 4.9483560853
Cl 10.0 10.0 10.0
3
1, 2
Cl 0.0 0.0 0.0
Ca 4.9196083474 5.0387766624 4.9354682463
Cl 10.0 10.0 10.0
3
1, 2
Cl 0.0 0.0 0.0
Ca 5.0 5.1 4.9
Cl 10.0 10.0 10.0
3
2, 1
Cl 0.0 0.0 0.0
Ca 4.9814129311 5.1115660591 4.9046328691
Cl 10.0 10.0 10.0
3
1, 2
Cl 0.0 0.0 0.0
Ca 4.9814129311 5.1115660591 4.9046328691
Cl 10.0 10.0 10.0
3
1, 2
Cl 0.0 0.0 0.0
Ca 4.9650112441 5.1229791255 4.9042559991
Cl 10.0 10.0 10.0
3
1, 2
Cl 0.0 0.0 0.0
Ca 4.9650112441 5.1229791255 4.9042559991
Cl 10.0 10.0 10.0