6
2, 1
C 0.0 0.0 -1e-06
H 1.065208 -0.182154 -0.012436
H -0.6907 -0.830189 -0.041491
H -0.374508 1.012343 0.053924
Cl -0.006116 0.116715 -2.233598
Cl 0.006116 -0.116716 2.233598
6
1, 1
C 0.0 0.0 -1e-06
H 1.065208 -0.182154 -0.012436
H -0.6907 -0.830189 -0.041491
H -0.374508 1.012343 0.053924
Cl -0.006116 0.116715 -2.233598
Cl 0.006116 -0.116716 2.233598
6
2, 1
C 0.0 0.0 -1e-06
H 1.065208 -0.182154 -0.012436
H -0.6907 -0.830189 -0.041491
H -0.374508 1.012343 0.053924
Cl -0.006116 0.116715 -2.233598
Cl 0.006116 -0.116716 2.233598
6
1, 1
C 0.0 0.0 -1e-06
H 1.065208 -0.182154 -0.012436
H -0.6907 -0.830189 -0.041491
H -0.374508 1.012343 0.053924
Cl -0.006116 0.116715 -2.233598
Cl 0.006116 -0.116716 2.233598
6
1, 1
C -0.0190812531 0.0036610773 -0.0239031367
H 1.0818872965 -0.2507980404 0.034158997
H -0.6910656029 -0.9036313825 -0.0057040188
H -0.5406018896 1.1171549562 0.1505447708
Cl 0.0029947295 0.1104000679 -2.2333231008
Cl 0.0077281683 -0.1105816458 2.2363315579
6
1, 1
C 0.0 0.0 -1e-06
H 1.065208 -0.182154 -0.012436
H -0.6907 -0.830189 -0.041491
H -0.374508 1.012343 0.053924
Cl -0.006116 0.116715 -2.233598
Cl 0.006116 -0.116716 2.233598
6
1, 2
C -0.0190812531 0.0036610773 -0.0239031367
H 1.0818872965 -0.2507980404 0.034158997
H -0.6910656029 -0.9036313825 -0.0057040188
H -0.5406018896 1.1171549562 0.1505447708
Cl 0.0029947295 0.1104000679 -2.2333231008
Cl 0.0077281683 -0.1105816458 2.2363315579
6
1, 1
C 0.0 0.0 -1e-06
H 1.065208 -0.182154 -0.012436
H -0.6907 -0.830189 -0.041491
H -0.374508 1.012343 0.053924
Cl -0.006116 0.116715 -2.233598
Cl 0.006116 -0.116716 2.233598
6
1, 2
C -0.0190812531 0.0036610773 -0.0239031367
H 1.0818872965 -0.2507980404 0.034158997
H -0.6910656029 -0.9036313825 -0.0057040188
H -0.5406018896 1.1171549562 0.1505447708
Cl 0.0029947295 0.1104000679 -2.2333231008
Cl 0.0077281683 -0.1105816458 2.2363315579
6
1, 2
C -0.0244502374 -0.0050653779 -0.0283468656
H 1.0789841666 -0.2355083328 0.0140449989
H -0.7006776387 -0.9092223867 0.0027274033
H -0.5516336451 1.1213987317 0.1606099535
Cl 0.003691876 0.1125151371 -2.2331707214
Cl 0.0095194277 -0.1101367108 2.2377306363
6
1, 1
C 0.0 0.0 -1e-06
H 1.065208 -0.182154 -0.012436
H -0.6907 -0.830189 -0.041491
H -0.374508 1.012343 0.053924
Cl -0.006116 0.116715 -2.233598
Cl 0.006116 -0.116716 2.233598
6
1, 2
C 0.0 0.0 -1e-06
H 1.065208 -0.182154 -0.012436
H -0.6907 -0.830189 -0.041491
H -0.374508 1.012343 0.053924
Cl -0.006116 0.116715 -2.233598
Cl 0.006116 -0.116716 2.233598
6
1, 2
C -0.0244502374 -0.0050653779 -0.0283468656
H 1.0789841666 -0.2355083328 0.0140449989
H -0.7006776387 -0.9092223867 0.0027274033
H -0.5516336451 1.1213987317 0.1606099535
Cl 0.003691876 0.1125151371 -2.2331707214
Cl 0.0095194277 -0.1101367108 2.2377306363
6
2, 1
C 0.0 0.0 -1e-06
H 1.065208 -0.182154 -0.012436
H -0.6907 -0.830189 -0.041491
H -0.374508 1.012343 0.053924
Cl -0.006116 0.116715 -2.233598
Cl 0.006116 -0.116716 2.233598
6
1, 1
C 0.0 0.0 -1e-06
H 1.065208 -0.182154 -0.012436
H -0.6907 -0.830189 -0.041491
H -0.374508 1.012343 0.053924
Cl -0.006116 0.116715 -2.233598
Cl 0.006116 -0.116716 2.233598
6
2, 1
C -0.0190812531 0.0036610773 -0.0239031367
H 1.0818872965 -0.2507980404 0.034158997
H -0.6910656029 -0.9036313825 -0.0057040188
H -0.5406018896 1.1171549562 0.1505447708
Cl 0.0029947295 0.1104000679 -2.2333231008
Cl 0.0077281683 -0.1105816458 2.2363315579
6
1, 1
C 0.0 0.0 -1e-06
H 1.065208 -0.182154 -0.012436
H -0.6907 -0.830189 -0.041491
H -0.374508 1.012343 0.053924
Cl -0.006116 0.116715 -2.233598
Cl 0.006116 -0.116716 2.233598
6
1, 1
C 0.0354049689 0.018218805 0.0399219801
H 1.1937794796 -0.2798969402 0.0077912017
H -0.6764727339 -0.9136882247 -0.0733221852
H -0.3670497869 1.0726580399 -0.0178730407
Cl -0.0192833893 0.1357386262 -2.2276107756
Cl 0.0030167109 -0.1384738387 2.21645675
6
2, 1
C -0.0244502374 -0.0050653779 -0.0283468656
H 1.0789841666 -0.2355083328 0.0140449989
H -0.7006776387 -0.9092223867 0.0027274033
H -0.5516336451 1.1213987317 0.1606099535
Cl 0.003691876 0.1125151371 -2.2331707214
Cl 0.0095194277 -0.1101367108 2.2377306363
6
1, 2
C 0.0 0.0 -1e-06
H 1.065208 -0.182154 -0.012436
H -0.6907 -0.830189 -0.041491
H -0.374508 1.012343 0.053924
Cl -0.006116 0.116715 -2.233598
Cl 0.006116 -0.116716 2.233598
6
1, 2
C 0.0 0.0 -1e-06
H 1.065208 -0.182154 -0.012436
H -0.6907 -0.830189 -0.041491
H -0.374508 1.012343 0.053924
Cl -0.006116 0.116715 -2.233598
Cl 0.006116 -0.116716 2.233598
6
1, 1
C 0.0354049689 0.018218805 0.0399219801
H 1.1937794796 -0.2798969402 0.0077912017
H -0.6764727339 -0.9136882247 -0.0733221852
H -0.3670497869 1.0726580399 -0.0178730407
Cl -0.0192833893 0.1357386262 -2.2276107756
Cl 0.0030167109 -0.1384738387 2.21645675
6
1, 2
C -0.0244502374 -0.0050653779 -0.0283468656
H 1.0789841666 -0.2355083328 0.0140449989
H -0.7006776387 -0.9092223867 0.0027274033
H -0.5516336451 1.1213987317 0.1606099535
Cl 0.003691876 0.1125151371 -2.2331707214
Cl 0.0095194277 -0.1101367108 2.2377306363
6
1, 1
C 0.0 0.0 -1e-06
H 1.065208 -0.182154 -0.012436
H -0.6907 -0.830189 -0.041491
H -0.374508 1.012343 0.053924
Cl -0.006116 0.116715 -2.233598
Cl 0.006116 -0.116716 2.233598
6
1, 1
C 0.0354049689 0.018218805 0.0399219801
H 1.1937794796 -0.2798969402 0.0077912017
H -0.6764727339 -0.9136882247 -0.0733221852
H -0.3670497869 1.0726580399 -0.0178730407
Cl -0.0192833893 0.1357386262 -2.2276107756
Cl 0.0030167109 -0.1384738387 2.21645675
6
2, 1
C -0.0190812531 0.0036610773 -0.0239031367
H 1.0818872965 -0.2507980404 0.034158997
H -0.6910656029 -0.9036313825 -0.0057040188
H -0.5406018896 1.1171549562 0.1505447708
Cl 0.0029947295 0.1104000679 -2.2333231008
Cl 0.0077281683 -0.1105816458 2.2363315579
6
1, 2
C -0.0244502374 -0.0050653779 -0.0283468656
H 1.0789841666 -0.2355083328 0.0140449989
H -0.7006776387 -0.9092223867 0.0027274033
H -0.5516336451 1.1213987317 0.1606099535
Cl 0.003691876 0.1125151371 -2.2331707214
Cl 0.0095194277 -0.1101367108 2.2377306363
6
1, 1
C 0.0354049689 0.018218805 0.0399219801
H 1.1937794796 -0.2798969402 0.0077912017
H -0.6764727339 -0.9136882247 -0.0733221852
H -0.3670497869 1.0726580399 -0.0178730407
Cl -0.0192833893 0.1357386262 -2.2276107756
Cl 0.0030167109 -0.1384738387 2.21645675
6
2, 1
C -0.0244502374 -0.0050653779 -0.0283468656
H 1.0789841666 -0.2355083328 0.0140449989
H -0.7006776387 -0.9092223867 0.0027274033
H -0.5516336451 1.1213987317 0.1606099535
Cl 0.003691876 0.1125151371 -2.2331707214
Cl 0.0095194277 -0.1101367108 2.2377306363
