6
40 40 40
 C                  0.00000000    0.00000000   -0.00000100
 H                  1.06520800   -0.18215400   -0.01243600
 H                 -0.69070000   -0.83018900   -0.04149100
 H                 -0.37450800    1.01234300    0.05392400
 Cl                -0.00611600    0.11671500   -2.23359800
 Cl                 0.00611600   -0.11671600    2.23359800
