3
1, 1
Cl 0.0 0.0 0.0
Ca 3.4 3.4 3.4
Cl 10.0 10.0 10.0
3
1, 1
Cl 0.0 0.0 0.0
Ca 3.4 3.4 3.4
Cl 10.0 10.0 10.0
3
1, 1
Cl 0.0 0.0 0.0
Ca 3.4 3.4 3.4
Cl 10.0 10.0 10.0
3
1, 1
Cl 0.0 0.0 0.0
Ca 3.4 3.4 3.4
Cl 10.0 10.0 10.0
3
1, 2
Cl 0.0 0.0 0.0
Ca 5.0 5.0 5.0
Cl 10.0 10.0 10.0
3
2, 1
Cl 0.0 0.0 0.0
Ca 5.0 5.1 4.9
Cl 10.0 10.0 10.0
3
2, 1
Cl 0.0 0.0 0.0
Ca 5.0 5.0 5.0
Cl 10.0 10.0 10.0
3
1, 2
Cl 0.0 0.0 0.0
Ca 5.0257685576 5.0024842477 5.019742374
Cl 10.0 10.0 10.0
3
2, 1
Cl 0.0 0.0 0.0
Ca 5.0409769582 4.9982378338 5.0451733653
Cl 10.0 10.0 10.0
